sim-time-limit = 10800s
seed-set = 1678182223

