sim-time-limit = 3600s
seed-set = 1678182223

