sim-time-limit = 5400s
seed-set = 1678182223

