sim-time-limit = 7200s
seed-set = 1678182223

