sim-time-limit = ${SIM_TIME}s
seed-set = 1678182223

