sim-time-limit = 1800s
seed-set = 1678182223

