sim-time-limit = 3600s

SN.field_x = 319.2
SN.field_y = 419.2

SN.numNodes = 120
SN.node[*].MobilityManager.positionOverride = true
SN.node[0].xCoor = 0
SN.node[0].yCoor = 100.0
SN.node[1].xCoor = 22.8
SN.node[1].yCoor = 100.0
SN.node[2].xCoor = 45.6
SN.node[2].yCoor = 100.0
SN.node[3].xCoor = 68.4
SN.node[3].yCoor = 100.0
SN.node[4].xCoor = 91.2
SN.node[4].yCoor = 100.0
SN.node[5].xCoor = 114.0
SN.node[5].yCoor = 100.0
SN.node[6].xCoor = 136.8
SN.node[6].yCoor = 100.0
SN.node[7].xCoor = 159.6
SN.node[7].yCoor = 100.0
SN.node[8].xCoor = 182.4
SN.node[8].yCoor = 100.0
SN.node[9].xCoor = 205.2
SN.node[9].yCoor = 100.0
SN.node[10].xCoor = 228.0
SN.node[10].yCoor = 100.0
SN.node[11].xCoor = 250.8
SN.node[11].yCoor = 100.0
SN.node[12].xCoor = 273.6
SN.node[12].yCoor = 100.0
SN.node[13].xCoor = 296.4
SN.node[13].yCoor = 100.0
SN.node[14].xCoor = 319.2
SN.node[14].yCoor = 100.0
SN.node[15].xCoor = 0
SN.node[15].yCoor = 122.8
SN.node[16].xCoor = 22.8
SN.node[16].yCoor = 122.8
SN.node[17].xCoor = 45.6
SN.node[17].yCoor = 122.8
SN.node[18].xCoor = 68.4
SN.node[18].yCoor = 122.8
SN.node[19].xCoor = 91.2
SN.node[19].yCoor = 122.8
SN.node[20].xCoor = 114.0
SN.node[20].yCoor = 122.8
SN.node[21].xCoor = 136.8
SN.node[21].yCoor = 122.8
SN.node[22].xCoor = 159.6
SN.node[22].yCoor = 122.8
SN.node[23].xCoor = 182.4
SN.node[23].yCoor = 122.8
SN.node[24].xCoor = 205.2
SN.node[24].yCoor = 122.8
SN.node[25].xCoor = 228.0
SN.node[25].yCoor = 122.8
SN.node[26].xCoor = 250.8
SN.node[26].yCoor = 122.8
SN.node[27].xCoor = 273.6
SN.node[27].yCoor = 122.8
SN.node[28].xCoor = 296.4
SN.node[28].yCoor = 122.8
SN.node[29].xCoor = 319.2
SN.node[29].yCoor = 122.8
SN.node[30].xCoor = 0
SN.node[30].yCoor = 145.6
SN.node[31].xCoor = 22.8
SN.node[31].yCoor = 145.6
SN.node[32].xCoor = 45.6
SN.node[32].yCoor = 145.6
SN.node[33].xCoor = 68.4
SN.node[33].yCoor = 145.6
SN.node[34].xCoor = 91.2
SN.node[34].yCoor = 145.6
SN.node[35].xCoor = 114.0
SN.node[35].yCoor = 145.6
SN.node[36].xCoor = 136.8
SN.node[36].yCoor = 145.6
SN.node[37].xCoor = 159.6
SN.node[37].yCoor = 145.6
SN.node[38].xCoor = 182.4
SN.node[38].yCoor = 145.6
SN.node[39].xCoor = 205.2
SN.node[39].yCoor = 145.6
SN.node[40].xCoor = 228.0
SN.node[40].yCoor = 145.6
SN.node[41].xCoor = 250.8
SN.node[41].yCoor = 145.6
SN.node[42].xCoor = 273.6
SN.node[42].yCoor = 145.6
SN.node[43].xCoor = 296.4
SN.node[43].yCoor = 145.6
SN.node[44].xCoor = 319.2
SN.node[44].yCoor = 145.6
SN.node[45].xCoor = 0
SN.node[45].yCoor = 168.4
SN.node[46].xCoor = 22.8
SN.node[46].yCoor = 168.4
SN.node[47].xCoor = 45.6
SN.node[47].yCoor = 168.4
SN.node[48].xCoor = 68.4
SN.node[48].yCoor = 168.4
SN.node[49].xCoor = 91.2
SN.node[49].yCoor = 168.4
SN.node[50].xCoor = 114.0
SN.node[50].yCoor = 168.4
SN.node[51].xCoor = 136.8
SN.node[51].yCoor = 168.4
SN.node[52].xCoor = 159.6
SN.node[52].yCoor = 168.4
SN.node[53].xCoor = 182.4
SN.node[53].yCoor = 168.4
SN.node[54].xCoor = 205.2
SN.node[54].yCoor = 168.4
SN.node[55].xCoor = 228.0
SN.node[55].yCoor = 168.4
SN.node[56].xCoor = 250.8
SN.node[56].yCoor = 168.4
SN.node[57].xCoor = 273.6
SN.node[57].yCoor = 168.4
SN.node[58].xCoor = 296.4
SN.node[58].yCoor = 168.4
SN.node[59].xCoor = 319.2
SN.node[59].yCoor = 168.4
SN.node[60].xCoor = 0
SN.node[60].yCoor = 191.2
SN.node[61].xCoor = 22.8
SN.node[61].yCoor = 191.2
SN.node[62].xCoor = 45.6
SN.node[62].yCoor = 191.2
SN.node[63].xCoor = 68.4
SN.node[63].yCoor = 191.2
SN.node[64].xCoor = 91.2
SN.node[64].yCoor = 191.2
SN.node[65].xCoor = 114.0
SN.node[65].yCoor = 191.2
SN.node[66].xCoor = 136.8
SN.node[66].yCoor = 191.2
SN.node[67].xCoor = 159.6
SN.node[67].yCoor = 191.2
SN.node[68].xCoor = 182.4
SN.node[68].yCoor = 191.2
SN.node[69].xCoor = 205.2
SN.node[69].yCoor = 191.2
SN.node[70].xCoor = 228.0
SN.node[70].yCoor = 191.2
SN.node[71].xCoor = 250.8
SN.node[71].yCoor = 191.2
SN.node[72].xCoor = 273.6
SN.node[72].yCoor = 191.2
SN.node[73].xCoor = 296.4
SN.node[73].yCoor = 191.2
SN.node[74].xCoor = 319.2
SN.node[74].yCoor = 191.2
SN.node[75].xCoor = 0
SN.node[75].yCoor = 214.0
SN.node[76].xCoor = 22.8
SN.node[76].yCoor = 214.0
SN.node[77].xCoor = 45.6
SN.node[77].yCoor = 214.0
SN.node[78].xCoor = 68.4
SN.node[78].yCoor = 214.0
SN.node[79].xCoor = 91.2
SN.node[79].yCoor = 214.0
SN.node[80].xCoor = 114.0
SN.node[80].yCoor = 214.0
SN.node[81].xCoor = 136.8
SN.node[81].yCoor = 214.0
SN.node[82].xCoor = 159.6
SN.node[82].yCoor = 214.0
SN.node[83].xCoor = 182.4
SN.node[83].yCoor = 214.0
SN.node[84].xCoor = 205.2
SN.node[84].yCoor = 214.0
SN.node[85].xCoor = 228.0
SN.node[85].yCoor = 214.0
SN.node[86].xCoor = 250.8
SN.node[86].yCoor = 214.0
SN.node[87].xCoor = 273.6
SN.node[87].yCoor = 214.0
SN.node[88].xCoor = 296.4
SN.node[88].yCoor = 214.0
SN.node[89].xCoor = 319.2
SN.node[89].yCoor = 214.0
SN.node[90].xCoor = 0
SN.node[90].yCoor = 236.8
SN.node[91].xCoor = 22.8
SN.node[91].yCoor = 236.8
SN.node[92].xCoor = 45.6
SN.node[92].yCoor = 236.8
SN.node[93].xCoor = 68.4
SN.node[93].yCoor = 236.8
SN.node[94].xCoor = 91.2
SN.node[94].yCoor = 236.8
SN.node[95].xCoor = 114.0
SN.node[95].yCoor = 236.8
SN.node[96].xCoor = 136.8
SN.node[96].yCoor = 236.8
SN.node[97].xCoor = 159.6
SN.node[97].yCoor = 236.8
SN.node[98].xCoor = 182.4
SN.node[98].yCoor = 236.8
SN.node[99].xCoor = 205.2
SN.node[99].yCoor = 236.8
SN.node[100].xCoor = 228.0
SN.node[100].yCoor = 236.8
SN.node[101].xCoor = 250.8
SN.node[101].yCoor = 236.8
SN.node[102].xCoor = 273.6
SN.node[102].yCoor = 236.8
SN.node[103].xCoor = 296.4
SN.node[103].yCoor = 236.8
SN.node[104].xCoor = 319.2
SN.node[104].yCoor = 236.8
SN.node[105].xCoor = 0
SN.node[105].yCoor = 259.6
SN.node[106].xCoor = 22.8
SN.node[106].yCoor = 259.6
SN.node[107].xCoor = 45.6
SN.node[107].yCoor = 259.6
SN.node[108].xCoor = 68.4
SN.node[108].yCoor = 259.6
SN.node[109].xCoor = 91.2
SN.node[109].yCoor = 259.6
SN.node[110].xCoor = 114.0
SN.node[110].yCoor = 259.6
SN.node[111].xCoor = 136.8
SN.node[111].yCoor = 259.6
SN.node[112].xCoor = 159.6
SN.node[112].yCoor = 259.6
SN.node[113].xCoor = 182.4
SN.node[113].yCoor = 259.6
SN.node[114].xCoor = 205.2
SN.node[114].yCoor = 259.6
SN.node[115].xCoor = 228.0
SN.node[115].yCoor = 259.6
SN.node[116].xCoor = 250.8
SN.node[116].yCoor = 259.6
SN.node[117].xCoor = 273.6
SN.node[117].yCoor = 259.6
SN.node[118].xCoor = 296.4
SN.node[118].yCoor = 259.6
SN.node[119].xCoor = 319.2
SN.node[119].yCoor = 259.6
