sim-time-limit = ${SIM_TIME}s

SN.field_x = ${FIELD_X}
SN.field_y = ${FIELD_Y}

SN.numNodes = ${NUM_NODES}
SN.deployment = "[0..${NUM_NODES_NS}]->${NODES_X}x${NODES_Y}"

