sim-time-limit = 3600s

SN.field_x = 312.2
SN.field_y = 156.1

SN.numNodes = 120
SN.deployment = "[0..119]->randomized_15x8"
SN.randomize_range = 0.1
