sim-time-limit = ${SIM_TIME}s

SN.field_x = ${FIELD_X}
SN.field_y = ${FIELD_Y}

SN.numNodes = ${NUM_NODES}
SN.node[*].MobilityManager.positionOverride = true
